226
ts and gs
C     2.1285064058  -5.9068712127  -3.8976831636
C     1.1522769301  -4.9542601599  -3.2412809391
C     0.2057977537  -5.4879449424  -2.3629789750
C    -0.5347983650  -5.9844210377   0.5079893988
C    -0.1152877226  -5.7842257794   1.8175780560
C     2.1853243898  -4.6276618181   3.3577663857
C     3.3780755236  -3.9046284799   3.3329600383
C     5.3742323835  -2.4257132198   1.6339821803
C     5.6746773178  -2.1680395698   0.3089723603
C     4.7358327038  -2.7101911740  -2.4718604422
C     3.7678834758  -3.3214372397  -3.2594287403
C     2.4683726626  -2.7439319149  -3.4129521149
C     1.2199065394  -3.5215367489  -3.3900026698
C     0.0241794752  -2.8025687292  -3.0737117015
C    -0.9426603145  -3.3792930202  -2.1810358225
C    -0.7031913627  -4.6691306346  -1.6379907108
C    -1.0619934603  -4.8982248720  -0.2381868786
C    -1.5733031077  -3.7889841507   0.5099429378
C    -1.1476972651  -3.5713316319   1.8664277286
C    -0.1998923744  -4.5008195328   2.4227412712
C     0.9182383753  -3.9782848298   3.2165966291
C     0.9105957778  -2.5915203170   3.4542705374
C     2.1390132688  -1.8260960673   3.4303193231
C     3.3685490404  -2.4876096240   3.1445601980
C     4.2856223291  -1.7602668732   2.2796352466
C     3.8559548056  -0.5124743036   1.7143260521
C     4.1614824416  -0.2668739724   0.3340878068
C     4.8919876602  -1.2282157809  -0.4265926674
C     4.4597337995  -1.4859059626  -1.7973589637
C     3.3800110082  -0.7159340454  -2.3101047482
C     2.3857607758  -1.3407589618  -3.1413490330
C     1.1520748569  -0.6349352259  -3.3571156971
C    -0.0604547952  -1.3872943309  -3.3224083701
C    -1.2844155725  -0.6941404327  -3.0917668207
C    -2.2385903675  -1.2824526440  -2.1806551687
C    -1.9129837733  -2.5170206834  -1.5656480102
C    -2.2122687113  -2.7047283429  -0.1777962755
C    -2.8048884357  -1.6351125625   0.5587308811
C    -2.3978736470  -1.3863564162   1.9348475158
C    -1.3873613070  -2.2655202191   2.4657365353
C    -0.2972221830  -1.8248515825   3.3080085137
C     0.1760938867   0.7481651255   3.6249721996
C    -0.0269406935  -0.4884831272   3.5064129680
C     2.0207369228  -0.4308682436   3.2779714969
C     2.8012963200   0.2736692137   2.3531577518
C     2.4120934863   1.5749278243   1.7987641394
C     2.7629247838   1.7957542256   0.4050172380
C     3.4240212169   0.7666841387  -0.3394215445
C     3.0621996518   0.5505328940  -1.7037502492
C     2.0716564476   1.3823808647  -2.2948102450
C     1.0897634108   0.7756297346  -3.1629309794
C    -0.1430802263   1.4627590684  -3.3520233987
C    -1.3580512280   0.7103839166  -3.3200786007
C    -2.5878183407   1.4149317796  -3.0689434531
C    -3.5488539363   0.8127792718  -2.1833441748
C    -3.2027927320  -0.4392496886  -1.5639194965
C    -3.5003023634  -0.6243422315  -0.1791234439
C    -4.2010820715   0.4282595829   0.5036627757
C    -3.8268026146   0.7057811544   1.8609989698
C    -2.7528358263  -0.0718419179   2.4794625846
C    -1.9382292901   0.6409194405   3.3763434061
C    -2.0388709989   2.0444610120   3.4796796299
C    -0.8142873447   2.8186949376   3.4454644583
C     0.4020203954   2.0664799177   3.2889296082
C     1.4412545645   2.4758276609   2.3700407474
C     1.1749789684   3.7640641605   1.7472739228
C     1.5354615967   3.9492581636   0.3673941001
C     2.1357381308   2.8485654988  -0.3276178760
C     1.7803170171   2.6370148317  -1.6983203988
C     0.7840669027   3.4906726250  -2.2880246267
C    -0.2157950061   2.8824221318  -3.1250252366
C    -1.4338947921   3.5809426495  -3.3761761372
C    -2.6800469818   2.8090615213  -3.3546320861
C    -3.9510065307   3.4200921267  -3.1398130965
C    -4.8935105045   2.8274822418  -2.3095293255
C    -4.5973658042   1.6037472548  -1.6360209800
C    -4.9697816442   1.3715322198  -0.2424252716
C    -5.7168958041   2.3274596706   0.5091964748
C    -5.3548720995   2.6137152109   1.8127195299
C    -4.2332901917   1.9646291503   2.4170863027
C    -3.2768990592   2.7064917761   3.2241850867
C    -3.2817051056   4.1264309893   3.3749441442
C    -2.0924391868   4.8545258395   3.3362173614
C    -0.8342170660   4.2000850443   3.1627890585
C     0.2561769304   4.7076339147   2.3253363723
C     0.1575363799   5.9811155782   1.7009465082
C     0.5249334950   6.1560150272   0.3725742250
C     0.9966481033   5.0462612464  -0.3788656235
C     0.5661410334   4.7914500565  -1.7546020051
C    -0.4284945232   5.5862478635  -2.3974815463
C    -1.4067362319   4.9944578891  -3.1873569631
H     2.9984117306  -6.1319260763  -3.2521707216
H     1.6287239944  -6.8682625892  -4.1046999615
H     2.5102057434  -5.5151929073  -4.8542797528
H     0.2737115098  -6.5585400553  -2.1368883141
H    -0.2866035444  -6.9273680116   0.0108631491
H     0.4550144796  -6.5760088193   2.3134754349
H     2.2460067419  -5.7200336049   3.3262909488
H     4.3181936603  -4.4640580098   3.2845738896
H     5.8669309449  -3.2639329407   2.1371249744
H     6.4016584947  -2.8033738876  -0.2063128723
H     5.6512671145  -3.2670381133  -2.2491129205
H     3.9758198886  -4.3230355833  -3.6356417328
H    -4.1353166813   4.4389915290  -3.4946477493
H    -5.7859116998   3.4002528188  -2.0398428731
H    -6.4720120700   2.9482303199   0.0169502361
H    -5.8267876793   3.4601143078   2.3220182065
H    -4.2250767717   4.6820595697   3.3472571245
H    -2.1558809998   5.9452909320   3.2746542825
H    -0.3786251291   6.7891893942   2.2087952584
H     0.2750472925   7.0971860429  -0.1266382979
H    -0.5391749719   6.6432778044  -2.1367757623
H    -2.2515797543   5.6069336569  -3.5170720375
C            2.038581997791    -5.795931412271    -4.136610841740
C            1.097641998451    -4.912464299101    -3.345658359768
C            0.324612370574    -5.503936749350    -2.344931429159
C            0.098102487731    -5.940871771150     0.623531910254
C            0.631653723266    -5.655170032233     1.873741227799
C            2.800316166304    -4.195847434301     3.305991764574
C            3.909321993376    -3.380774607114     3.120460977833
C            5.572764110204    -2.022878348660     1.049898231941
C            5.716381272750    -1.813897523067    -0.315718513937
C            4.567122345691    -2.422627375749    -3.009423954979
C            3.557346006214    -3.103998498760    -3.678034853097
C            2.213853382954    -2.615989391549    -3.674799551662
C            1.038536813720    -3.479247337111    -3.495329351677
C           -0.157363312048    -2.848427736132    -3.028654406803
C           -0.965430909027    -3.492450856525    -2.029917340723
C           -0.543317026702    -4.747987012159    -1.510015668578
C           -0.682557440110    -4.971838845731    -0.070951555154
C           -1.252007260351    -3.925035384722     0.713532900186
C           -0.696235969230    -3.626878683211     2.006747329075
C            0.413905866871    -4.384851631186     2.483779386062
C            1.482000762840    -3.666344966943     3.182938909383
C            1.345618314355    -2.254760145493     3.331363794192
C            2.494790231462    -1.410147715467     3.138515889142
C            3.749110100401    -1.999774275843     2.803351984135
C            4.566921824788    -1.332288499778     1.787975605978
C            4.055397161126    -0.135716364839     1.204783250518
C            4.204555247521     0.080756628821    -0.209722029377
C            4.861745166316    -0.903759653361    -1.004030127896
C            4.293558654472    -1.209451501409    -2.318053854678
C            3.116645166766    -0.510518496525    -2.716077626311
C            2.066915193499    -1.219002674199    -3.399465901411
C            0.766398686971    -0.605672560163    -3.450948150935
C           -0.374708058324    -1.443023245870    -3.256476741724
C           -1.611950913834    -0.840364065738    -2.881123905200
C           -2.421346199453    -1.496103389327    -1.878222126163
C           -1.939229594756    -2.712098537588    -1.316393360710
C           -2.090475581923    -2.935090429127     0.088387780977
C           -2.717992664718    -1.928916840035     0.878430472015
C           -2.158175829524    -1.628149080347     2.178427077671
C           -1.006837133522    -2.353189311789     2.604065710515
C            0.039619283178    -1.650056194122     3.280268008707
C           -0.104529100643    -0.249479188924     3.502636948910
C            1.050688572918     0.599641520430     3.306478971659
C            2.275578642812    -0.006588403445     2.902763417946
C            3.075133996221     0.646354862289     1.912513377687
C            2.618873402878     1.880229489176     1.364190006898
C            2.771073661786     2.098941357880    -0.058162798729
C            3.367595759078     1.068163555805    -0.840549587134
C            2.811520954600     0.765990336211    -2.123586622377
C            1.685204581034     1.510354141633    -2.577921545626
C            0.628203096313     0.801250127417    -3.264320537309
C           -0.668850680248     1.391047061549    -3.298376725021
C           -1.811725212831     0.553471090442    -3.102344934805
C           -3.051727267790     1.173331842069    -2.711031871116
C           -3.855975402258     0.518732887271    -1.712900821814
C           -3.377185986017    -0.721105534264    -1.160123942210
C           -3.528837643405    -0.941907064674     0.245073803959
C           -4.153437259885     0.088957043590     1.032504068865
C           -3.597782052459     0.387697730812     2.326042528448
C           -2.446214624760    -0.359696598415     2.761705972122
C           -1.398924724471     0.343336478912     3.436489761383
C           -1.551938383771     1.760430747832     3.643012469355
C           -0.403277081381     2.604616482266     3.445652157398
C            0.836749026690     1.986073747853     3.054407852471
C            1.636172392246     2.639047423626     2.063947958349
C            1.157983303930     3.879741434086     1.511010944145
C            1.311294178259     4.098698682569     0.096870107715
C            1.933042926524     3.064252671570    -0.688641777920
C            1.380813654372     2.765112695684    -1.973713478287
C            0.233545204639     3.515092058291    -2.414527924001
C           -0.819951019460     2.808741001110    -3.094635943188
C           -2.109267510190     3.408582069599    -3.201371315976
C           -3.279413042376     2.551248357298    -2.999343840337
C           -4.552078194112     3.078584098224    -2.630765984051
C           -5.328226718921     2.446212315855    -1.668152923074
C           -4.866758542580     1.257423656058    -1.030122360018
C           -5.023181299805     1.031472197128     0.408496840381
C           -5.648167374332     1.985913608304     1.263927287424
C           -5.112462497774     2.273968812509     2.512414872351
C           -3.926969502810     1.621033124265     2.961631821012
C           -2.854340333146     2.340848879843     3.651888716266
C           -2.927311479897     3.740038321113     3.917485961543
C           -1.818819877741     4.554619978362     3.726262343997
C           -0.587128149669     4.006717109438     3.261474431907
C            0.231152317751     4.675110267959     2.247027563509
C           -0.151768148551     5.916482826814     1.658948080804
C           -0.003133152146     6.128353152559     0.294484740303
C            0.534688373739     5.108227926247    -0.544401220360
C           -0.029392351877     4.802854456284    -1.861014566213
C           -1.151922535704     5.506487740434    -2.388580889953
C           -2.168949807415     4.824673601866    -3.043935392812
H            2.995999284819    -5.972852966063    -3.611124701631
H            1.575373937794    -6.784629028479    -4.294744737729
H            2.269919600066    -5.372575740153    -5.127189606067
H            0.501247251988    -6.563999424959    -2.127279493228
H            0.429850882813    -6.847124176120     0.107179188774
H            1.362518042342    -6.349046212566     2.300236955385
H            2.952660555126    -5.277268717529     3.376613840679
H            4.896184236593    -3.848671974188     3.050761319809
H            6.122853583659    -2.847954076175     1.512830409516
H            6.373837908978    -2.482040499613    -0.880597946880
H            5.536470144491    -2.916798100636    -2.890169748810
H            3.785736247361    -4.094358341247    -4.071589568708
H           -4.852827769229     4.073612751406    -2.973011735079
H           -6.212969966327     2.965307350961    -1.286786309592
H           -6.451216968623     2.622830308623     0.880330142838
H           -5.512202902068     3.127796507252     3.068136837493
H           -3.896274572850     4.212330875834     4.106433038272
H           -1.953847432576     5.639703567394     3.771476974746
H           -0.722098756909     6.646324080850     2.241807782862
H           -0.461511169765     7.017639559201    -0.149029192950
H           -1.308335855237     6.559262033171    -2.133871836132
H           -3.090797652410     5.364319508905    -3.281973636002
