113
Stone-Wales transition state of 5,5 nanotube optimized using PBE/6-31G(d)
C     2.1285064058  -5.9068712127  -3.8976831636
C     1.1522769301  -4.9542601599  -3.2412809391
C     0.2057977537  -5.4879449424  -2.3629789750
C    -0.5347983650  -5.9844210377   0.5079893988
C    -0.1152877226  -5.7842257794   1.8175780560
C     2.1853243898  -4.6276618181   3.3577663857
C     3.3780755236  -3.9046284799   3.3329600383
C     5.3742323835  -2.4257132198   1.6339821803
C     5.6746773178  -2.1680395698   0.3089723603
C     4.7358327038  -2.7101911740  -2.4718604422
C     3.7678834758  -3.3214372397  -3.2594287403
C     2.4683726626  -2.7439319149  -3.4129521149
C     1.2199065394  -3.5215367489  -3.3900026698
C     0.0241794752  -2.8025687292  -3.0737117015
C    -0.9426603145  -3.3792930202  -2.1810358225
C    -0.7031913627  -4.6691306346  -1.6379907108
C    -1.0619934603  -4.8982248720  -0.2381868786
C    -1.5733031077  -3.7889841507   0.5099429378
C    -1.1476972651  -3.5713316319   1.8664277286
C    -0.1998923744  -4.5008195328   2.4227412712
C     0.9182383753  -3.9782848298   3.2165966291
C     0.9105957778  -2.5915203170   3.4542705374
C     2.1390132688  -1.8260960673   3.4303193231
C     3.3685490404  -2.4876096240   3.1445601980
C     4.2856223291  -1.7602668732   2.2796352466
C     3.8559548056  -0.5124743036   1.7143260521
C     4.1614824416  -0.2668739724   0.3340878068
C     4.8919876602  -1.2282157809  -0.4265926674
C     4.4597337995  -1.4859059626  -1.7973589637
C     3.3800110082  -0.7159340454  -2.3101047482
C     2.3857607758  -1.3407589618  -3.1413490330
C     1.1520748569  -0.6349352259  -3.3571156971
C    -0.0604547952  -1.3872943309  -3.3224083701
C    -1.2844155725  -0.6941404327  -3.0917668207
C    -2.2385903675  -1.2824526440  -2.1806551687
C    -1.9129837733  -2.5170206834  -1.5656480102
C    -2.2122687113  -2.7047283429  -0.1777962755
C    -2.8048884357  -1.6351125625   0.5587308811
C    -2.3978736470  -1.3863564162   1.9348475158
C    -1.3873613070  -2.2655202191   2.4657365353
C    -0.2972221830  -1.8248515825   3.3080085137
C     0.1760938867   0.7481651255   3.6249721996
C    -0.0269406935  -0.4884831272   3.5064129680
C     2.0207369228  -0.4308682436   3.2779714969
C     2.8012963200   0.2736692137   2.3531577518
C     2.4120934863   1.5749278243   1.7987641394
C     2.7629247838   1.7957542256   0.4050172380
C     3.4240212169   0.7666841387  -0.3394215445
C     3.0621996518   0.5505328940  -1.7037502492
C     2.0716564476   1.3823808647  -2.2948102450
C     1.0897634108   0.7756297346  -3.1629309794
C    -0.1430802263   1.4627590684  -3.3520233987
C    -1.3580512280   0.7103839166  -3.3200786007
C    -2.5878183407   1.4149317796  -3.0689434531
C    -3.5488539363   0.8127792718  -2.1833441748
C    -3.2027927320  -0.4392496886  -1.5639194965
C    -3.5003023634  -0.6243422315  -0.1791234439
C    -4.2010820715   0.4282595829   0.5036627757
C    -3.8268026146   0.7057811544   1.8609989698
C    -2.7528358263  -0.0718419179   2.4794625846
C    -1.9382292901   0.6409194405   3.3763434061
C    -2.0388709989   2.0444610120   3.4796796299
C    -0.8142873447   2.8186949376   3.4454644583
C     0.4020203954   2.0664799177   3.2889296082
C     1.4412545645   2.4758276609   2.3700407474
C     1.1749789684   3.7640641605   1.7472739228
C     1.5354615967   3.9492581636   0.3673941001
C     2.1357381308   2.8485654988  -0.3276178760
C     1.7803170171   2.6370148317  -1.6983203988
C     0.7840669027   3.4906726250  -2.2880246267
C    -0.2157950061   2.8824221318  -3.1250252366
C    -1.4338947921   3.5809426495  -3.3761761372
C    -2.6800469818   2.8090615213  -3.3546320861
C    -3.9510065307   3.4200921267  -3.1398130965
C    -4.8935105045   2.8274822418  -2.3095293255
C    -4.5973658042   1.6037472548  -1.6360209800
C    -4.9697816442   1.3715322198  -0.2424252716
C    -5.7168958041   2.3274596706   0.5091964748
C    -5.3548720995   2.6137152109   1.8127195299
C    -4.2332901917   1.9646291503   2.4170863027
C    -3.2768990592   2.7064917761   3.2241850867
C    -3.2817051056   4.1264309893   3.3749441442
C    -2.0924391868   4.8545258395   3.3362173614
C    -0.8342170660   4.2000850443   3.1627890585
C     0.2561769304   4.7076339147   2.3253363723
C     0.1575363799   5.9811155782   1.7009465082
C     0.5249334950   6.1560150272   0.3725742250
C     0.9966481033   5.0462612464  -0.3788656235
C     0.5661410334   4.7914500565  -1.7546020051
C    -0.4284945232   5.5862478635  -2.3974815463
C    -1.4067362319   4.9944578891  -3.1873569631
H     2.9984117306  -6.1319260763  -3.2521707216
H     1.6287239944  -6.8682625892  -4.1046999615
H     2.5102057434  -5.5151929073  -4.8542797528
H     0.2737115098  -6.5585400553  -2.1368883141
H    -0.2866035444  -6.9273680116   0.0108631491
H     0.4550144796  -6.5760088193   2.3134754349
H     2.2460067419  -5.7200336049   3.3262909488
H     4.3181936603  -4.4640580098   3.2845738896
H     5.8669309449  -3.2639329407   2.1371249744
H     6.4016584947  -2.8033738876  -0.2063128723
H     5.6512671145  -3.2670381133  -2.2491129205
H     3.9758198886  -4.3230355833  -3.6356417328
H    -4.1353166813   4.4389915290  -3.4946477493
H    -5.7859116998   3.4002528188  -2.0398428731
H    -6.4720120700   2.9482303199   0.0169502361
H    -5.8267876793   3.4601143078   2.3220182065
H    -4.2250767717   4.6820595697   3.3472571245
H    -2.1558809998   5.9452909320   3.2746542825
H    -0.3786251291   6.7891893942   2.2087952584
H     0.2750472925   7.0971860429  -0.1266382979
H    -0.5391749719   6.6432778044  -2.1367757623
H    -2.2515797543   5.6069336569  -3.5170720375
