73

C          5.95114        4.40209        0.00000
C          5.65503        5.79189        0.00000
C          5.29997        6.40620        1.23118
C          4.24350        7.35653        1.23118
C          3.59517        7.64481        0.00000
C          2.18188        7.79266        0.00000
C          1.48792        7.64481        1.23118
C          0.25764        6.93371        1.23118
C         -0.21687        6.40620        0.00000
C         -0.79422        5.10777        0.00000
C         -0.86805        4.40209        1.23118
C         -0.57194        3.01228        1.23118
C         -0.21687        2.39798        0.00000
C          0.83959        1.44765        0.00000
C          1.48792        1.15937        1.23118
C          2.90121        1.01152        1.23118
C          3.59517        1.15937        0.00000
C          4.82545        1.87046        0.00000
C          5.29997        2.39798        1.23118
C          5.87732        3.69641        1.23118
C          5.95114        4.40209        2.46236
C          5.65503        5.79189        2.46236
C          5.29997        6.40620        3.69354
C          4.24350        7.35653        3.69354
C          3.59517        7.64481        2.46236
C          2.18188        7.79266        2.46236
C          1.48792        7.64481        3.69354
C          0.25764        6.93371        3.69354
C         -0.21687        6.40620        2.46236
C         -0.79422        5.10777        2.46236
C         -0.86805        4.40209        3.69354
C         -0.57194        3.01228        3.69354
C         -0.21687        2.39798        2.46236
C          0.83959        1.44765        2.46236
C          1.48792        1.15937        3.69354
C          2.90121        1.01152        3.69354
C          3.59517        1.15937        2.46236
C          4.82545        1.87046        2.46236
C          5.29997        2.39798        3.69354
C          5.87732        3.69641        3.69354
C          5.95114        4.40209        4.92472
C          5.65503        5.79189        4.92472
C          3.59517        7.64481        4.92472
C          2.18188        7.79266        4.92472
C         -0.21687        6.40620        4.92472
C         -0.79422        5.10777        4.92472
C         -0.21687        2.39798        4.92472
C          0.83959        1.44765        4.92472
C          3.59517        1.15937        4.92472
C          4.82545        1.87046        4.92472
H          6.21331        3.91727       -0.87250
H          5.69681        6.34147       -0.87250
H          4.13727        7.74432       -0.87250
H          1.67212        8.00222       -0.87250
H         -0.14400        6.95252       -0.87250
H         -1.15105        4.68772       -0.87250
H         -0.71393        2.63611       -0.87250
H          1.12883        0.97848       -0.87250
H          3.21510        0.76022       -0.87250
H          5.36103        2.00056       -0.87250
H          6.21331        3.91727        5.79721
H          5.69681        6.34147        5.79721
H          4.13727        7.74432        5.79721
H          1.67212        8.00222        5.79721
H         -0.14400        6.95252        5.79721
H         -1.15105        4.68772        5.79721
H         -0.71393        2.63611        5.79721
H          1.12883        0.97848        5.79721
H          3.21510        0.76022        5.79721
C          5.36103        2.00056        5.79721
H          6.25082        2.55750        5.58984
H          5.62421        1.04485        6.20003
H          4.76338        2.53421        6.50639
