193
optimized 5,5 CNT 20 A 
C           -1.779781542169   -11.637375333296     1.448956049671
C            0.153311914968     9.379758569370    -4.860601326394
C            1.049705700694     9.771181234493    -3.887305508630
C            1.540315789171     8.823148115943    -2.925870792330
C            1.677242559136     9.147772599732    -1.520481330054
C            1.331380883863    10.439213169003    -0.994860948042
C            0.647187846381    10.548176270026     0.198523487441
C            0.270848563929     9.371625323836     0.931920387294
C           -1.029896229180     9.232046390036     1.554530748523
C           -2.029707246383    10.260935349675     1.479973598385
C           -3.350207615983     9.936726936665     1.245030359626
C           -3.743242136265     8.565850196491     1.071609363949
C           -4.684374442630     8.155046122363     0.049583596498
C           -5.287113394962     9.091308149459    -0.858114682471
C           -5.417454972447     8.782479956632    -2.196687237297
C           -4.952738830183     7.520277717421    -2.701237701066
C           -4.234368771791     7.405760087970    -3.954250215968
C           -3.938945441753     8.546788339801    -4.775608503658
C           -2.699995406361     8.679538547459    -5.368441086127
C           -1.688391535235     7.678443322462    -5.172579949540
C           -0.301872493153     8.018700531090    -4.925795223208
C            0.530965439352     7.036287369355    -4.309311721341
C            1.467090300347     7.445159780898    -3.292761747579
C            1.987609384924     6.441885961925    -2.406688569919
C            2.122453890987     6.760945593988    -1.025459261730
C            1.731499371009     8.070713195888    -0.584590050969
C            1.016862766279     8.184480062878     0.661726478767
C            0.734688831557     6.981847141856     1.394388336847
C           -0.543747053976     6.844619677435     2.006244658563
C           -1.489699472095     7.915503913784     1.861284382254
C           -2.868845468363     7.576872002500     1.615795746999
C           -3.221039120804     6.187224918144     1.529386945403
C           -4.146049989723     5.783487226482     0.524937512545
C           -4.682627817808     6.785193214311    -0.353327349474
C           -4.819019596831     6.462620120451    -1.751308178151
C           -4.411365733347     5.157007641401    -2.189349074728
C           -3.705260103525     5.044487686663    -3.420791516808
C           -3.434351929179     6.242115141261    -4.165764953438
C           -2.140444494156     6.380647697785    -4.785052952886
C           -1.192944810324     5.313588209874    -4.622765626954
C            0.169731868055     5.648046571399    -4.380070325027
C            1.033540596296     4.653177769359    -3.808357896165
C            1.964731606815     5.059943115392    -2.797243957937
C            2.499206617816     4.070001709461    -1.916457955443
C            2.635799742989     4.392492991440    -0.520698753086
C            2.230861153090     5.688613659193    -0.076210422171
C            1.520072926475     5.801774274453     1.163528858059
C            1.243041142462     4.614201709295     1.908244309490
C           -0.049040033133     4.475373663534     2.526272159267
C           -0.998579619716     5.531319398931     2.368473717642
C           -2.370368885672     5.194467325645     2.124066195032
C           -2.736314622951     3.815464251088     2.047223694435
C           -3.671250185273     3.407541280056     1.032240181686
C           -4.193066172394     4.399069598183     0.145641574020
C           -4.328998292263     4.078132184150    -1.244899740498
C           -3.938109517202     2.778638926919    -1.692130427778
C           -3.224609224401     2.664862392273    -2.936623173527
C           -2.937768955536     3.856529296505    -3.670895511594
C           -1.650598752106     3.994357830201    -4.286641990446
C           -0.702662283941     2.935010336727    -4.142520227408
C            0.674386386808     3.273052935561    -3.897087753038
C            1.527500225628     2.283870206415    -3.308251230413
C            2.456976432412     2.689916715056    -2.299353178884
C            2.989570819407     1.692786351952    -1.411765606877
C            3.125927195522     2.013909874073    -0.022220870311
C            2.724061991101     3.319489792201     0.424717014255
C            2.014776995565     3.432356485288     1.662033038983
C            1.733367892587     2.235361080812     2.406474199953
C            0.446818827697     2.096915651048     3.021394903982
C           -0.506970444538     3.161267273750     2.867716833365
C           -1.875945777909     2.825104247628     2.623533583248
C           -2.240113321341     1.437073541556     2.541805982161
C           -3.171173981668     1.031128394182     1.531397841705
C           -3.701085801998     2.028962950849     0.642975000282
C           -3.837168703165     1.708547581789    -0.744693879367
C           -3.439039852835     0.402047982391    -1.192555147444
C           -2.728625434609     0.288686990063    -2.431553389796
C           -2.444404738475     1.486581388795    -3.173386530554
C           -1.159665191939     1.624179860395    -3.787522200127
C           -0.206546411686     0.558906066989    -3.636377066905
C            1.164390470883     0.895594760803    -3.391714651827
C            2.022960355763    -0.092889827023    -2.814303781913
C            2.958597252003     0.315757135840    -1.799822551678
C            3.483115199399    -0.676651491134    -0.912361057817
C            3.619822326349    -0.355500375272     0.477143898410
C            3.226387111582     0.945503569783     0.924474897348
C            2.512687901020     1.058856753861     2.169291190100
C            2.226771196570    -0.134646409492     2.905506168064
C            0.940131943400    -0.273344857204     3.520127427401
C           -0.009612190543     0.787354502857     3.374493837753
C           -1.386850633954     0.449206674545     3.128308463700
C           -1.746674764916    -0.932993225058     3.039695831201
C           -2.678129826458    -1.338495598238     2.029515661276
C           -3.212975526361    -0.346702641959     1.147711690942
C           -3.350676761819    -0.669447260537    -0.248285695144
C           -2.947739810885    -1.968311747381    -0.694130782538
C           -2.237117668426    -2.081719571622    -1.932954473835
C           -1.957585567679    -0.891617451305    -2.677077984887
C           -0.664630663203    -0.752971420459    -3.294192109189
C            0.285849726098    -1.811039070827    -3.135914220007
C            1.656687678213    -1.474225559796    -2.891073086759
C            2.515052792635    -2.467057777106    -2.305270538795
C            3.445943477395    -2.060753345716    -1.297825272077
C            3.983413638772    -3.053235001926    -0.415273580870
C            4.121050420624    -2.730638473638     0.980409356809
C            3.714295241969    -1.431135826604     1.425882215214
C            3.004390101994    -1.318930506926     2.662896490557
C            2.726534767518    -2.510842790931     3.408333081637
C            1.433923487926    -2.650619869295     4.025031811528
C            0.482155666289    -1.590942383811     3.867274922262
C           -0.886808664941    -1.926846479790     3.622191053981
C           -1.253444333618    -3.309564093695     3.544513161284
C           -2.189475170563    -3.715825711882     2.529863054650
C           -2.713825704270    -2.721917216596     1.642038096730
C           -2.851898749080    -3.043746630489     0.254700694727
C           -2.461408459345    -4.347697296264    -0.193603024973
C           -1.747210786368    -4.461464713990    -1.437624071208
C           -1.458454207772    -3.265963301086    -2.173067531239
C           -0.172526207185    -3.127510502506    -2.784948887466
C            0.777799641431    -4.189277179077    -2.637023643741
C            2.154701585754    -3.851124785849    -2.392031963878
C            3.006576396297    -4.836576473151    -1.805053321277
C            3.940891813837    -4.429337760385    -0.796982000077
C            4.461835178836    -5.427650426166     0.094513578883
C            4.598507786366    -5.108385037630     1.475421208657
C            4.209486215948    -3.800460431594     1.923372090069
C            3.497133653526    -3.688739955409     3.162377665169
C            3.206887076720    -4.891053629034     3.892901300212
C            1.926931270572    -5.030574463363     4.501242316945
C            0.976878969827    -3.961814098643     4.363263780859
C           -0.394905583803    -4.297881920352     4.117856338676
C           -0.750236514250    -5.685833642515     4.022111888152
C           -1.676452985969    -6.085763396271     3.017240261211
C           -2.220767835302    -5.089551381627     2.140323551920
C           -2.359958742203    -5.414373394006     0.751808619780
C           -1.949512946637    -6.718912406464     0.309231285048
C           -1.241817607253    -6.830078417933    -0.919887530901
C           -0.967526629546    -5.636021226549    -1.670766491050
C            0.321442766221    -5.495799324176    -2.280591575151
C            1.273081063881    -6.556503559700    -2.109184429034
C            2.636769360174    -6.222575503572    -1.871324321551
C            3.496219855122    -7.220688146559    -1.299297571952
C            4.436935833624    -6.811725024371    -0.287608765118
C            5.004153961049    -7.797358924574     0.575842350166
C            5.145326576410    -7.471786966396     1.980458098653
C            4.705967123269    -6.185841566619     2.418808666451
C            3.988389862928    -6.074119355233     3.663754194717
C            3.733377529043    -7.252755754488     4.428253726598
C            2.428678838908    -7.397695371201     5.041273935764
C            1.477433817661    -6.349302047114     4.852541225075
C            0.099094412881    -6.686986956705     4.603673178966
C           -0.284321935699    -8.062183002890     4.548667619220
C           -1.236507485003    -8.463632604684     3.536001186720
C           -1.723301719918    -7.468218112057     2.640411357349
C           -1.864791599641    -7.803089525996     1.247275577844
C           -1.531701705705    -9.121588044357     0.797960564038
C           -0.793839579038    -9.227900242471    -0.448607243968
C           -0.474255517481    -8.020036683173    -1.151077979177
C            0.821443205129    -7.875817437822    -1.765272304348
C            1.767260862344    -8.939532184802    -1.661571380810
C            3.153454366653    -8.601455723361    -1.415663300560
C            4.086425142415    -9.545360550246    -0.866221357051
C            4.987815529276    -9.153783343168     0.102443237562
C            5.281800480767    -8.483275569912     2.991601953546
C            4.594397447461    -8.376559888679     4.183091945870
C            1.908810570238    -8.678085524488     5.434484004737
C            0.589593941941    -9.002324379688     5.191915345177
C           -1.438307028336    -9.822701780705     3.128074750805
C           -1.609419291105   -10.174337113971     1.798615254585
C           -0.016689343176   -10.382868221134    -0.817484421103
C            1.228028015267   -10.241631033476    -1.396822513395
H           -0.812836599209   -12.163829876139     1.343800443581
H           -2.336097917156   -12.150335066609     2.251476236067
H           -2.341762546323   -11.774289206243     0.510895584359
H           -0.320023470865    10.144624111147    -5.483831784198
H            1.265179192957    10.836810703414    -3.762819019781
H            1.474116467352    11.334545775755    -1.607633390576
H            0.264204727533    11.527176931137     0.502438170607
H           -1.730285192049    11.313247176863     1.458364600114
H           -4.065381607595    10.739928935318     1.042848231495
H           -5.508222429298    10.110012161219    -0.525204162049
H           -5.738809008758     9.563905537883    -2.892094690052
H           -4.637761764874     9.388025578806    -4.813910537128
H           -2.446897877315     9.622750884383    -5.862179749238
H            3.987763962284   -10.609875900991    -1.099971107156
H            5.582808395584    -9.917428459552     0.612628340696
H            5.810221628260    -9.414488457007     2.765499988498
H            4.594723563226    -9.225674045121     4.873366875724
H            2.590151608896    -9.458887613513     5.785848251196
H            0.257341661844   -10.032660915940     5.352561184087
H           -1.357355877625   -10.627399190237     3.868354906237
H           -0.341212728418   -11.381679423731    -0.525327936857
H            1.853794659790   -11.130278412022    -1.525759921041
