32
oxygens are transition state, carbons are ground state
O     0.1760938867   0.7481651255   3.6249721996
O    -0.0269406935  -0.4884831272   3.5064129680
O    0.9105957778  -2.5915203170   3.4542705374
O     2.1390132688  -1.8260960673   3.4303193231
O    -0.2972221830  -1.8248515825   3.3080085137
O     2.0207369228  -0.4308682436   3.2779714969
O    -2.7528358263  -0.0718419179   2.4794625846
O    -1.9382292901   0.6409194405   3.3763434061
O    -2.0388709989   2.0444610120   3.4796796299
O    -0.8142873447   2.8186949376   3.4454644583
O     0.4020203954   2.0664799177   3.2889296082
O     1.4412545645   2.4758276609   2.3700407474
O    -2.3978736470  -1.3863564162   1.9348475158
O    -1.3873613070  -2.2655202191   2.4657365353
O     2.8012963200   0.2736692137   2.3531577518
O     2.4120934863   1.5749278243   1.7987641394
C           -0.104529100643    -0.249479188924     3.502636948910
C            1.050688572918     0.599641520430     3.306478971659
C            1.345618314355    -2.254760145493     3.331363794192
C            2.494790231462    -1.410147715467     3.138515889142
C            0.039619283178    -1.650056194122     3.280268008707
C            2.275578642812    -0.006588403445     2.902763417946
C           -2.446214624760    -0.359696598415     2.761705972122
C           -1.398924724471     0.343336478912     3.436489761383
C           -1.551938383771     1.760430747832     3.643012469355
C           -0.403277081381     2.604616482266     3.445652157398
C            0.836749026690     1.986073747853     3.054407852471
C            1.636172392246     2.639047423626     2.063947958349
C           -2.158175829524    -1.628149080347     2.178427077671
C           -1.006837133522    -2.353189311789     2.604065710515
C            3.075133996221     0.646354862289     1.912513377687
C            2.618873402878     1.880229489176     1.364190006898
